<?xml version="1.0" encoding="UTF-8"?>

<!-- generated on 2025-03-06 18:51:06 by Eclipse SUMO duarouter Version 1.21.0
<duarouterConfiguration xmlns:xsi="http://www.w3.org/2001/XMLSchema-instance" xsi:noNamespaceSchemaLocation="http://sumo.dlr.de/xsd/duarouterConfiguration.xsd">

    <input>
        <net-file value="test.net.xml"/>
        <route-files value="rou.xml"/>
    </input>

    <output>
        <output-file value="test.rou.xml"/>
    </output>

    <report>
        <ignore-errors value="true"/>
    </report>

</duarouterConfiguration>
-->

<routes xmlns:xsi="http://www.w3.org/2001/XMLSchema-instance" xsi:noNamespaceSchemaLocation="http://sumo.dlr.de/xsd/routes_file.xsd">
    <vehicle id="0" depart="0.00">
        <route edges="BC CA AB"/>
    </vehicle>
    <vehicle id="1" depart="1.00">
        <route edges="AC"/>
    </vehicle>
    <vehicle id="2" depart="2.00">
        <route edges="CA"/>
    </vehicle>
    <vehicle id="7" depart="7.00">
        <route edges="BC"/>
    </vehicle>
    <vehicle id="9" depart="9.00">
        <route edges="CA AB"/>
    </vehicle>
    <vehicle id="10" depart="10.00">
        <route edges="CA"/>
    </vehicle>
    <vehicle id="12" depart="12.00">
        <route edges="CB BA"/>
    </vehicle>
    <vehicle id="13" depart="13.00">
        <route edges="AB"/>
    </vehicle>
    <vehicle id="15" depart="15.00">
        <route edges="CA"/>
    </vehicle>
    <vehicle id="18" depart="18.00">
        <route edges="CA AB BC"/>
    </vehicle>
    <vehicle id="20" depart="20.00">
        <route edges="CA AB"/>
    </vehicle>
    <vehicle id="21" depart="21.00">
        <route edges="AC"/>
    </vehicle>
    <vehicle id="25" depart="25.00">
        <route edges="BA AC"/>
    </vehicle>
    <vehicle id="26" depart="26.00">
        <route edges="AC CB"/>
    </vehicle>
    <vehicle id="27" depart="27.00">
        <route edges="BC"/>
    </vehicle>
    <vehicle id="31" depart="31.00">
        <route edges="BC CA"/>
    </vehicle>
    <vehicle id="34" depart="34.00">
        <route edges="AC"/>
    </vehicle>
    <vehicle id="35" depart="35.00">
        <route edges="AC CB"/>
    </vehicle>
    <vehicle id="36" depart="36.00">
        <route edges="CB BA AC"/>
    </vehicle>
    <vehicle id="38" depart="38.00">
        <route edges="CB BA"/>
    </vehicle>
    <vehicle id="39" depart="39.00">
        <route edges="AC"/>
    </vehicle>
    <vehicle id="42" depart="42.00">
        <route edges="BA AC"/>
    </vehicle>
    <vehicle id="44" depart="44.00">
        <route edges="AB"/>
    </vehicle>
    <vehicle id="45" depart="45.00">
        <route edges="AB BC"/>
    </vehicle>
    <vehicle id="49" depart="49.00">
        <route edges="CB"/>
    </vehicle>
    <vehicle id="50" depart="50.00">
        <route edges="AB BC CA"/>
    </vehicle>
    <vehicle id="51" depart="51.00">
        <route edges="CA AB BC"/>
    </vehicle>
    <vehicle id="54" depart="54.00">
        <route edges="BA AC CB"/>
    </vehicle>
    <vehicle id="55" depart="55.00">
        <route edges="CB BA AC"/>
    </vehicle>
    <vehicle id="57" depart="57.00">
        <route edges="CB"/>
    </vehicle>
    <vehicle id="59" depart="59.00">
        <route edges="BC CA AB"/>
    </vehicle>
    <vehicle id="60" depart="60.00">
        <route edges="CA AB BC"/>
    </vehicle>
    <vehicle id="61" depart="61.00">
        <route edges="CA AB BC"/>
    </vehicle>
    <vehicle id="66" depart="66.00">
        <route edges="CB"/>
    </vehicle>
    <vehicle id="68" depart="68.00">
        <route edges="AB BC CA"/>
    </vehicle>
    <vehicle id="69" depart="69.00">
        <route edges="CA AB"/>
    </vehicle>
    <vehicle id="71" depart="71.00">
        <route edges="AC CB"/>
    </vehicle>
    <vehicle id="72" depart="72.00">
        <route edges="BA AC"/>
    </vehicle>
    <vehicle id="73" depart="73.00">
        <route edges="BC CA"/>
    </vehicle>
    <vehicle id="74" depart="74.00">
        <route edges="AC"/>
    </vehicle>
    <vehicle id="79" depart="79.00">
        <route edges="AC"/>
    </vehicle>
    <vehicle id="80" depart="80.00">
        <route edges="AB BC"/>
    </vehicle>
    <vehicle id="81" depart="81.00">
        <route edges="AC CB"/>
    </vehicle>
    <vehicle id="89" depart="89.00">
        <route edges="BA"/>
    </vehicle>
    <vehicle id="90" depart="90.00">
        <route edges="CA"/>
    </vehicle>
    <vehicle id="92" depart="92.00">
        <route edges="BA"/>
    </vehicle>
    <vehicle id="93" depart="93.00">
        <route edges="CB BA AC"/>
    </vehicle>
    <vehicle id="94" depart="94.00">
        <route edges="AC CB BA"/>
    </vehicle>
    <vehicle id="95" depart="95.00">
        <route edges="BA AC"/>
    </vehicle>
    <vehicle id="96" depart="96.00">
        <route edges="AC CB"/>
    </vehicle>
    <vehicle id="97" depart="97.00">
        <route edges="BA AC CB"/>
    </vehicle>
    <vehicle id="98" depart="98.00">
        <route edges="BC CA AB"/>
    </vehicle>
    <vehicle id="99" depart="99.00">
        <route edges="CB"/>
    </vehicle>
    <vehicle id="100" depart="100.00">
        <route edges="CB"/>
    </vehicle>
    <vehicle id="102" depart="102.00">
        <route edges="BA AC"/>
    </vehicle>
    <vehicle id="104" depart="104.00">
        <route edges="BA AC CB"/>
    </vehicle>
    <vehicle id="106" depart="106.00">
        <route edges="BA"/>
    </vehicle>
    <vehicle id="107" depart="107.00">
        <route edges="CB"/>
    </vehicle>
    <vehicle id="108" depart="108.00">
        <route edges="BC CA"/>
    </vehicle>
    <vehicle id="111" depart="111.00">
        <route edges="BC CA"/>
    </vehicle>
    <vehicle id="112" depart="112.00">
        <route edges="AB BC"/>
    </vehicle>
    <vehicle id="116" depart="116.00">
        <route edges="BC CA"/>
    </vehicle>
    <vehicle id="118" depart="118.00">
        <route edges="CB BA AC"/>
    </vehicle>
    <vehicle id="119" depart="119.00">
        <route edges="BC"/>
    </vehicle>
    <vehicle id="123" depart="123.00">
        <route edges="AC CB BA"/>
    </vehicle>
    <vehicle id="127" depart="127.00">
        <route edges="CB"/>
    </vehicle>
    <vehicle id="129" depart="129.00">
        <route edges="AC CB"/>
    </vehicle>
    <vehicle id="130" depart="130.00">
        <route edges="CB"/>
    </vehicle>
    <vehicle id="134" depart="134.00">
        <route edges="BC CA AB"/>
    </vehicle>
    <vehicle id="137" depart="137.00">
        <route edges="AB"/>
    </vehicle>
    <vehicle id="138" depart="138.00">
        <route edges="AB BC"/>
    </vehicle>
    <vehicle id="142" depart="142.00">
        <route edges="BA AC CB"/>
    </vehicle>
    <vehicle id="144" depart="144.00">
        <route edges="BA AC"/>
    </vehicle>
    <vehicle id="145" depart="145.00">
        <route edges="AB BC CA"/>
    </vehicle>
    <vehicle id="147" depart="147.00">
        <route edges="CA AB BC"/>
    </vehicle>
    <vehicle id="152" depart="152.00">
        <route edges="AB"/>
    </vehicle>
    <vehicle id="153" depart="153.00">
        <route edges="AC CB"/>
    </vehicle>
    <vehicle id="155" depart="155.00">
        <route edges="CB BA AC"/>
    </vehicle>
    <vehicle id="160" depart="160.00">
        <route edges="CB"/>
    </vehicle>
    <vehicle id="162" depart="162.00">
        <route edges="AB BC CA"/>
    </vehicle>
    <vehicle id="163" depart="163.00">
        <route edges="AC CB"/>
    </vehicle>
    <vehicle id="166" depart="166.00">
        <route edges="CA AB"/>
    </vehicle>
    <vehicle id="167" depart="167.00">
        <route edges="CB"/>
    </vehicle>
    <vehicle id="169" depart="169.00">
        <route edges="BA AC"/>
    </vehicle>
    <vehicle id="172" depart="172.00">
        <route edges="AC CB"/>
    </vehicle>
    <vehicle id="173" depart="173.00">
        <route edges="CB BA AC"/>
    </vehicle>
    <vehicle id="177" depart="177.00">
        <route edges="CB BA AC"/>
    </vehicle>
    <vehicle id="178" depart="178.00">
        <route edges="CB BA AC"/>
    </vehicle>
    <vehicle id="181" depart="181.00">
        <route edges="BC"/>
    </vehicle>
    <vehicle id="185" depart="185.00">
        <route edges="BC CA"/>
    </vehicle>
    <vehicle id="186" depart="186.00">
        <route edges="CA"/>
    </vehicle>
    <vehicle id="189" depart="189.00">
        <route edges="AC CB"/>
    </vehicle>
    <vehicle id="191" depart="191.00">
        <route edges="AC CB BA"/>
    </vehicle>
    <vehicle id="192" depart="192.00">
        <route edges="BA AC"/>
    </vehicle>
    <vehicle id="200" depart="200.00">
        <route edges="BA AC"/>
    </vehicle>
    <vehicle id="201" depart="201.00">
        <route edges="BA AC CB"/>
    </vehicle>
    <vehicle id="203" depart="203.00">
        <route edges="AB BC"/>
    </vehicle>
    <vehicle id="205" depart="205.00">
        <route edges="CA"/>
    </vehicle>
    <vehicle id="208" depart="208.00">
        <route edges="AC CB BA"/>
    </vehicle>
    <vehicle id="212" depart="212.00">
        <route edges="BA AC"/>
    </vehicle>
    <vehicle id="213" depart="213.00">
        <route edges="BC CA AB"/>
    </vehicle>
    <vehicle id="214" depart="214.00">
        <route edges="CA"/>
    </vehicle>
    <vehicle id="216" depart="216.00">
        <route edges="AC CB"/>
    </vehicle>
    <vehicle id="217" depart="217.00">
        <route edges="BC CA AB"/>
    </vehicle>
    <vehicle id="218" depart="218.00">
        <route edges="AC CB"/>
    </vehicle>
    <vehicle id="223" depart="223.00">
        <route edges="CA AB BC"/>
    </vehicle>
    <vehicle id="224" depart="224.00">
        <route edges="CA AB BC"/>
    </vehicle>
    <vehicle id="226" depart="226.00">
        <route edges="BA AC"/>
    </vehicle>
    <vehicle id="228" depart="228.00">
        <route edges="CA AB BC"/>
    </vehicle>
    <vehicle id="231" depart="231.00">
        <route edges="AC"/>
    </vehicle>
    <vehicle id="232" depart="232.00">
        <route edges="BC CA AB"/>
    </vehicle>
    <vehicle id="234" depart="234.00">
        <route edges="CA AB"/>
    </vehicle>
    <vehicle id="236" depart="236.00">
        <route edges="BA AC"/>
    </vehicle>
    <vehicle id="237" depart="237.00">
        <route edges="BA AC CB"/>
    </vehicle>
    <vehicle id="238" depart="238.00">
        <route edges="BC CA"/>
    </vehicle>
    <vehicle id="242" depart="242.00">
        <route edges="CB"/>
    </vehicle>
    <vehicle id="244" depart="244.00">
        <route edges="BC"/>
    </vehicle>
    <vehicle id="245" depart="245.00">
        <route edges="AC"/>
    </vehicle>
    <vehicle id="250" depart="250.00">
        <route edges="BC CA AB"/>
    </vehicle>
    <vehicle id="252" depart="252.00">
        <route edges="AB BC"/>
    </vehicle>
    <vehicle id="255" depart="255.00">
        <route edges="AC"/>
    </vehicle>
    <vehicle id="257" depart="257.00">
        <route edges="CA"/>
    </vehicle>
    <vehicle id="259" depart="259.00">
        <route edges="AB BC"/>
    </vehicle>
    <vehicle id="260" depart="260.00">
        <route edges="CB BA"/>
    </vehicle>
    <vehicle id="261" depart="261.00">
        <route edges="BC CA"/>
    </vehicle>
    <vehicle id="262" depart="262.00">
        <route edges="BC CA"/>
    </vehicle>
    <vehicle id="263" depart="263.00">
        <route edges="CB BA AC"/>
    </vehicle>
    <vehicle id="264" depart="264.00">
        <route edges="AB"/>
    </vehicle>
    <vehicle id="265" depart="265.00">
        <route edges="AB BC CA"/>
    </vehicle>
    <vehicle id="267" depart="267.00">
        <route edges="CA"/>
    </vehicle>
    <vehicle id="269" depart="269.00">
        <route edges="CA AB"/>
    </vehicle>
    <vehicle id="271" depart="271.00">
        <route edges="AB"/>
    </vehicle>
    <vehicle id="273" depart="273.00">
        <route edges="CB BA"/>
    </vehicle>
    <vehicle id="274" depart="274.00">
        <route edges="CA AB"/>
    </vehicle>
    <vehicle id="275" depart="275.00">
        <route edges="CA AB BC"/>
    </vehicle>
    <vehicle id="276" depart="276.00">
        <route edges="AB BC CA"/>
    </vehicle>
    <vehicle id="280" depart="280.00">
        <route edges="BA"/>
    </vehicle>
    <vehicle id="284" depart="284.00">
        <route edges="BC CA"/>
    </vehicle>
    <vehicle id="290" depart="290.00">
        <route edges="AC CB"/>
    </vehicle>
    <vehicle id="291" depart="291.00">
        <route edges="CA AB"/>
    </vehicle>
    <vehicle id="292" depart="292.00">
        <route edges="CB BA AC"/>
    </vehicle>
    <vehicle id="295" depart="295.00">
        <route edges="CB BA AC"/>
    </vehicle>
    <vehicle id="297" depart="297.00">
        <route edges="BA AC CB"/>
    </vehicle>
    <vehicle id="300" depart="300.00">
        <route edges="AB BC CA"/>
    </vehicle>
    <vehicle id="302" depart="302.00">
        <route edges="CA AB BC"/>
    </vehicle>
    <vehicle id="312" depart="312.00">
        <route edges="BC CA"/>
    </vehicle>
    <vehicle id="313" depart="313.00">
        <route edges="AC"/>
    </vehicle>
    <vehicle id="317" depart="317.00">
        <route edges="AC"/>
    </vehicle>
    <vehicle id="321" depart="321.00">
        <route edges="CA AB"/>
    </vehicle>
    <vehicle id="322" depart="322.00">
        <route edges="CB BA"/>
    </vehicle>
    <vehicle id="324" depart="324.00">
        <route edges="BA"/>
    </vehicle>
    <vehicle id="326" depart="326.00">
        <route edges="CB BA"/>
    </vehicle>
    <vehicle id="328" depart="328.00">
        <route edges="AB BC"/>
    </vehicle>
    <vehicle id="329" depart="329.00">
        <route edges="AB"/>
    </vehicle>
    <vehicle id="332" depart="332.00">
        <route edges="CA AB BC"/>
    </vehicle>
    <vehicle id="335" depart="335.00">
        <route edges="BA AC CB"/>
    </vehicle>
    <vehicle id="336" depart="336.00">
        <route edges="CB BA AC"/>
    </vehicle>
    <vehicle id="337" depart="337.00">
        <route edges="BC"/>
    </vehicle>
    <vehicle id="339" depart="339.00">
        <route edges="AC"/>
    </vehicle>
    <vehicle id="340" depart="340.00">
        <route edges="BC CA AB"/>
    </vehicle>
    <vehicle id="347" depart="347.00">
        <route edges="CA AB BC"/>
    </vehicle>
    <vehicle id="351" depart="351.00">
        <route edges="CA AB"/>
    </vehicle>
    <vehicle id="353" depart="353.00">
        <route edges="CA AB BC"/>
    </vehicle>
    <vehicle id="355" depart="355.00">
        <route edges="CA"/>
    </vehicle>
    <vehicle id="359" depart="359.00">
        <route edges="AC"/>
    </vehicle>
    <vehicle id="362" depart="362.00">
        <route edges="CB"/>
    </vehicle>
    <vehicle id="364" depart="364.00">
        <route edges="AB BC CA"/>
    </vehicle>
    <vehicle id="366" depart="366.00">
        <route edges="CB BA AC"/>
    </vehicle>
    <vehicle id="367" depart="367.00">
        <route edges="BC"/>
    </vehicle>
    <vehicle id="369" depart="369.00">
        <route edges="BA AC"/>
    </vehicle>
    <vehicle id="372" depart="372.00">
        <route edges="AC CB"/>
    </vehicle>
    <vehicle id="373" depart="373.00">
        <route edges="CA AB BC"/>
    </vehicle>
    <vehicle id="374" depart="374.00">
        <route edges="BA AC"/>
    </vehicle>
    <vehicle id="375" depart="375.00">
        <route edges="AC CB"/>
    </vehicle>
    <vehicle id="379" depart="379.00">
        <route edges="AC CB BA"/>
    </vehicle>
    <vehicle id="380" depart="380.00">
        <route edges="CA AB BC"/>
    </vehicle>
    <vehicle id="386" depart="386.00">
        <route edges="AB BC"/>
    </vehicle>
    <vehicle id="387" depart="387.00">
        <route edges="BC CA AB"/>
    </vehicle>
    <vehicle id="388" depart="388.00">
        <route edges="CB"/>
    </vehicle>
    <vehicle id="391" depart="391.00">
        <route edges="CA AB BC"/>
    </vehicle>
    <vehicle id="392" depart="392.00">
        <route edges="AC CB"/>
    </vehicle>
    <vehicle id="393" depart="393.00">
        <route edges="CB BA AC"/>
    </vehicle>
    <vehicle id="396" depart="396.00">
        <route edges="CB"/>
    </vehicle>
    <vehicle id="398" depart="398.00">
        <route edges="BA AC CB"/>
    </vehicle>
    <vehicle id="399" depart="399.00">
        <route edges="BC CA"/>
    </vehicle>
    <vehicle id="400" depart="400.00">
        <route edges="AC"/>
    </vehicle>
    <vehicle id="404" depart="404.00">
        <route edges="BC"/>
    </vehicle>
    <vehicle id="405" depart="405.00">
        <route edges="BA AC"/>
    </vehicle>
    <vehicle id="408" depart="408.00">
        <route edges="CA AB"/>
    </vehicle>
    <vehicle id="409" depart="409.00">
        <route edges="CA"/>
    </vehicle>
    <vehicle id="411" depart="411.00">
        <route edges="BC CA"/>
    </vehicle>
    <vehicle id="412" depart="412.00">
        <route edges="CB BA"/>
    </vehicle>
    <vehicle id="413" depart="413.00">
        <route edges="AB BC"/>
    </vehicle>
    <vehicle id="415" depart="415.00">
        <route edges="CB BA"/>
    </vehicle>
    <vehicle id="418" depart="418.00">
        <route edges="BC CA AB"/>
    </vehicle>
    <vehicle id="419" depart="419.00">
        <route edges="BA AC CB"/>
    </vehicle>
    <vehicle id="422" depart="422.00">
        <route edges="CB"/>
    </vehicle>
    <vehicle id="423" depart="423.00">
        <route edges="BA AC"/>
    </vehicle>
    <vehicle id="424" depart="424.00">
        <route edges="CA"/>
    </vehicle>
    <vehicle id="426" depart="426.00">
        <route edges="AB BC"/>
    </vehicle>
    <vehicle id="427" depart="427.00">
        <route edges="CB"/>
    </vehicle>
    <vehicle id="429" depart="429.00">
        <route edges="AB BC"/>
    </vehicle>
    <vehicle id="430" depart="430.00">
        <route edges="CB BA"/>
    </vehicle>
    <vehicle id="432" depart="432.00">
        <route edges="AB BC CA"/>
    </vehicle>
    <vehicle id="433" depart="433.00">
        <route edges="AC CB BA"/>
    </vehicle>
    <vehicle id="434" depart="434.00">
        <route edges="AB BC"/>
    </vehicle>
    <vehicle id="435" depart="435.00">
        <route edges="BC CA"/>
    </vehicle>
    <vehicle id="438" depart="438.00">
        <route edges="AC CB"/>
    </vehicle>
    <vehicle id="440" depart="440.00">
        <route edges="AC"/>
    </vehicle>
    <vehicle id="441" depart="441.00">
        <route edges="AB BC CA"/>
    </vehicle>
    <vehicle id="446" depart="446.00">
        <route edges="AC CB"/>
    </vehicle>
    <vehicle id="447" depart="447.00">
        <route edges="AC CB BA"/>
    </vehicle>
    <vehicle id="448" depart="448.00">
        <route edges="BA AC"/>
    </vehicle>
    <vehicle id="449" depart="449.00">
        <route edges="BC"/>
    </vehicle>
    <vehicle id="450" depart="450.00">
        <route edges="CB BA AC"/>
    </vehicle>
    <vehicle id="453" depart="453.00">
        <route edges="CA"/>
    </vehicle>
    <vehicle id="454" depart="454.00">
        <route edges="AB BC"/>
    </vehicle>
    <vehicle id="455" depart="455.00">
        <route edges="BA AC CB"/>
    </vehicle>
    <vehicle id="458" depart="458.00">
        <route edges="BC"/>
    </vehicle>
    <vehicle id="459" depart="459.00">
        <route edges="CA"/>
    </vehicle>
    <vehicle id="464" depart="464.00">
        <route edges="CA AB"/>
    </vehicle>
    <vehicle id="471" depart="471.00">
        <route edges="CA"/>
    </vehicle>
    <vehicle id="474" depart="474.00">
        <route edges="CB"/>
    </vehicle>
    <vehicle id="478" depart="478.00">
        <route edges="AB BC"/>
    </vehicle>
    <vehicle id="480" depart="480.00">
        <route edges="CA AB BC"/>
    </vehicle>
    <vehicle id="487" depart="487.00">
        <route edges="AC CB BA"/>
    </vehicle>
    <vehicle id="489" depart="489.00">
        <route edges="AC CB BA"/>
    </vehicle>
    <vehicle id="492" depart="492.00">
        <route edges="CA"/>
    </vehicle>
    <vehicle id="493" depart="493.00">
        <route edges="CB BA"/>
    </vehicle>
    <vehicle id="494" depart="494.00">
        <route edges="CA AB"/>
    </vehicle>
    <vehicle id="496" depart="496.00">
        <route edges="BA"/>
    </vehicle>
    <vehicle id="498" depart="498.00">
        <route edges="BA"/>
    </vehicle>
    <vehicle id="499" depart="499.00">
        <route edges="CB"/>
    </vehicle>
    <vehicle id="500" depart="500.00">
        <route edges="AB BC CA"/>
    </vehicle>
    <vehicle id="502" depart="502.00">
        <route edges="BA"/>
    </vehicle>
    <vehicle id="504" depart="504.00">
        <route edges="CB BA"/>
    </vehicle>
    <vehicle id="505" depart="505.00">
        <route edges="BC"/>
    </vehicle>
    <vehicle id="506" depart="506.00">
        <route edges="BC CA AB"/>
    </vehicle>
    <vehicle id="508" depart="508.00">
        <route edges="AB BC"/>
    </vehicle>
    <vehicle id="509" depart="509.00">
        <route edges="AB BC CA"/>
    </vehicle>
    <vehicle id="510" depart="510.00">
        <route edges="AC"/>
    </vehicle>
    <vehicle id="511" depart="511.00">
        <route edges="CB BA AC"/>
    </vehicle>
    <vehicle id="514" depart="514.00">
        <route edges="AB"/>
    </vehicle>
    <vehicle id="515" depart="515.00">
        <route edges="AC"/>
    </vehicle>
    <vehicle id="516" depart="516.00">
        <route edges="BC CA AB"/>
    </vehicle>
    <vehicle id="517" depart="517.00">
        <route edges="AB BC CA"/>
    </vehicle>
    <vehicle id="518" depart="518.00">
        <route edges="AC"/>
    </vehicle>
    <vehicle id="520" depart="520.00">
        <route edges="CA AB BC"/>
    </vehicle>
    <vehicle id="522" depart="522.00">
        <route edges="CA AB BC"/>
    </vehicle>
    <vehicle id="523" depart="523.00">
        <route edges="AB BC"/>
    </vehicle>
    <vehicle id="528" depart="528.00">
        <route edges="BA"/>
    </vehicle>
    <vehicle id="531" depart="531.00">
        <route edges="AB BC"/>
    </vehicle>
    <vehicle id="533" depart="533.00">
        <route edges="BC"/>
    </vehicle>
    <vehicle id="534" depart="534.00">
        <route edges="AC CB"/>
    </vehicle>
    <vehicle id="536" depart="536.00">
        <route edges="BC CA AB"/>
    </vehicle>
    <vehicle id="538" depart="538.00">
        <route edges="BC CA"/>
    </vehicle>
    <vehicle id="540" depart="540.00">
        <route edges="BA AC"/>
    </vehicle>
    <vehicle id="541" depart="541.00">
        <route edges="BA"/>
    </vehicle>
    <vehicle id="546" depart="546.00">
        <route edges="CA AB"/>
    </vehicle>
    <vehicle id="547" depart="547.00">
        <route edges="AB BC CA"/>
    </vehicle>
    <vehicle id="548" depart="548.00">
        <route edges="CA AB BC"/>
    </vehicle>
    <vehicle id="549" depart="549.00">
        <route edges="BC"/>
    </vehicle>
    <vehicle id="559" depart="559.00">
        <route edges="BC CA"/>
    </vehicle>
    <vehicle id="560" depart="560.00">
        <route edges="CB"/>
    </vehicle>
    <vehicle id="561" depart="561.00">
        <route edges="CA AB BC"/>
    </vehicle>
    <vehicle id="562" depart="562.00">
        <route edges="BC CA AB"/>
    </vehicle>
    <vehicle id="564" depart="564.00">
        <route edges="AC"/>
    </vehicle>
    <vehicle id="569" depart="569.00">
        <route edges="BC CA AB"/>
    </vehicle>
    <vehicle id="571" depart="571.00">
        <route edges="BA"/>
    </vehicle>
    <vehicle id="573" depart="573.00">
        <route edges="CA AB BC"/>
    </vehicle>
    <vehicle id="574" depart="574.00">
        <route edges="AB"/>
    </vehicle>
    <vehicle id="575" depart="575.00">
        <route edges="AB BC"/>
    </vehicle>
    <vehicle id="578" depart="578.00">
        <route edges="BA AC"/>
    </vehicle>
    <vehicle id="579" depart="579.00">
        <route edges="CA AB"/>
    </vehicle>
    <vehicle id="580" depart="580.00">
        <route edges="BA AC"/>
    </vehicle>
    <vehicle id="582" depart="582.00">
        <route edges="CA AB"/>
    </vehicle>
    <vehicle id="586" depart="586.00">
        <route edges="AC"/>
    </vehicle>
    <vehicle id="587" depart="587.00">
        <route edges="AB BC CA"/>
    </vehicle>
    <vehicle id="588" depart="588.00">
        <route edges="AC CB BA"/>
    </vehicle>
    <vehicle id="589" depart="589.00">
        <route edges="CA AB BC"/>
    </vehicle>
    <vehicle id="592" depart="592.00">
        <route edges="AB"/>
    </vehicle>
    <vehicle id="593" depart="593.00">
        <route edges="CB"/>
    </vehicle>
    <vehicle id="594" depart="594.00">
        <route edges="BC"/>
    </vehicle>
    <vehicle id="596" depart="596.00">
        <route edges="AB"/>
    </vehicle>
    <vehicle id="598" depart="598.00">
        <route edges="BC CA"/>
    </vehicle>
    <vehicle id="600" depart="600.00">
        <route edges="CB BA AC"/>
    </vehicle>
    <vehicle id="601" depart="601.00">
        <route edges="BC"/>
    </vehicle>
    <vehicle id="602" depart="602.00">
        <route edges="BA AC"/>
    </vehicle>
    <vehicle id="603" depart="603.00">
        <route edges="BA AC"/>
    </vehicle>
    <vehicle id="605" depart="605.00">
        <route edges="AB BC"/>
    </vehicle>
    <vehicle id="606" depart="606.00">
        <route edges="CB BA"/>
    </vehicle>
    <vehicle id="607" depart="607.00">
        <route edges="CA"/>
    </vehicle>
    <vehicle id="610" depart="610.00">
        <route edges="BC CA"/>
    </vehicle>
    <vehicle id="613" depart="613.00">
        <route edges="CA"/>
    </vehicle>
    <vehicle id="614" depart="614.00">
        <route edges="BA AC CB"/>
    </vehicle>
    <vehicle id="615" depart="615.00">
        <route edges="BC"/>
    </vehicle>
    <vehicle id="617" depart="617.00">
        <route edges="BC CA AB"/>
    </vehicle>
    <vehicle id="619" depart="619.00">
        <route edges="AC"/>
    </vehicle>
    <vehicle id="620" depart="620.00">
        <route edges="AB BC"/>
    </vehicle>
    <vehicle id="621" depart="621.00">
        <route edges="AC CB BA"/>
    </vehicle>
    <vehicle id="622" depart="622.00">
        <route edges="AB BC CA"/>
    </vehicle>
    <vehicle id="626" depart="626.00">
        <route edges="BC CA"/>
    </vehicle>
    <vehicle id="627" depart="627.00">
        <route edges="CB BA"/>
    </vehicle>
    <vehicle id="628" depart="628.00">
        <route edges="CA AB BC"/>
    </vehicle>
    <vehicle id="629" depart="629.00">
        <route edges="AC CB BA"/>
    </vehicle>
    <vehicle id="630" depart="630.00">
        <route edges="AB"/>
    </vehicle>
    <vehicle id="634" depart="634.00">
        <route edges="AC CB BA"/>
    </vehicle>
    <vehicle id="637" depart="637.00">
        <route edges="AC CB BA"/>
    </vehicle>
    <vehicle id="639" depart="639.00">
        <route edges="CA AB BC"/>
    </vehicle>
    <vehicle id="640" depart="640.00">
        <route edges="AB"/>
    </vehicle>
    <vehicle id="642" depart="642.00">
        <route edges="CA AB BC"/>
    </vehicle>
    <vehicle id="643" depart="643.00">
        <route edges="CB"/>
    </vehicle>
    <vehicle id="648" depart="648.00">
        <route edges="CB BA AC"/>
    </vehicle>
    <vehicle id="650" depart="650.00">
        <route edges="CA"/>
    </vehicle>
    <vehicle id="651" depart="651.00">
        <route edges="CA"/>
    </vehicle>
    <vehicle id="652" depart="652.00">
        <route edges="CA AB BC"/>
    </vehicle>
    <vehicle id="654" depart="654.00">
        <route edges="BA"/>
    </vehicle>
    <vehicle id="655" depart="655.00">
        <route edges="AC"/>
    </vehicle>
    <vehicle id="656" depart="656.00">
        <route edges="CB BA"/>
    </vehicle>
    <vehicle id="659" depart="659.00">
        <route edges="AB BC CA"/>
    </vehicle>
    <vehicle id="660" depart="660.00">
        <route edges="CB"/>
    </vehicle>
    <vehicle id="662" depart="662.00">
        <route edges="CA AB"/>
    </vehicle>
    <vehicle id="664" depart="664.00">
        <route edges="CA"/>
    </vehicle>
    <vehicle id="665" depart="665.00">
        <route edges="CA AB"/>
    </vehicle>
    <vehicle id="666" depart="666.00">
        <route edges="BA"/>
    </vehicle>
    <vehicle id="668" depart="668.00">
        <route edges="BA AC"/>
    </vehicle>
    <vehicle id="672" depart="672.00">
        <route edges="CB BA"/>
    </vehicle>
    <vehicle id="673" depart="673.00">
        <route edges="CB"/>
    </vehicle>
    <vehicle id="674" depart="674.00">
        <route edges="BA AC"/>
    </vehicle>
    <vehicle id="677" depart="677.00">
        <route edges="CA AB"/>
    </vehicle>
    <vehicle id="681" depart="681.00">
        <route edges="CB BA AC"/>
    </vehicle>
    <vehicle id="684" depart="684.00">
        <route edges="BA AC CB"/>
    </vehicle>
    <vehicle id="685" depart="685.00">
        <route edges="AC CB BA"/>
    </vehicle>
    <vehicle id="687" depart="687.00">
        <route edges="AB BC"/>
    </vehicle>
    <vehicle id="688" depart="688.00">
        <route edges="AC CB"/>
    </vehicle>
    <vehicle id="690" depart="690.00">
        <route edges="CB"/>
    </vehicle>
    <vehicle id="691" depart="691.00">
        <route edges="BC CA"/>
    </vehicle>
    <vehicle id="693" depart="693.00">
        <route edges="CA"/>
    </vehicle>
    <vehicle id="694" depart="694.00">
        <route edges="AB BC CA"/>
    </vehicle>
    <vehicle id="698" depart="698.00">
        <route edges="CA AB BC"/>
    </vehicle>
    <vehicle id="704" depart="704.00">
        <route edges="AB BC"/>
    </vehicle>
    <vehicle id="707" depart="707.00">
        <route edges="AC CB BA"/>
    </vehicle>
    <vehicle id="708" depart="708.00">
        <route edges="BC CA AB"/>
    </vehicle>
    <vehicle id="710" depart="710.00">
        <route edges="BC"/>
    </vehicle>
    <vehicle id="712" depart="712.00">
        <route edges="BA"/>
    </vehicle>
    <vehicle id="716" depart="716.00">
        <route edges="CA AB BC"/>
    </vehicle>