<nodes>
	<node id="A" x="0" y="0"/>
	<node id="B" x="100" y="0"/>
	<node id="C" x="100" y="100"/>
	<node id="D" x="0" y="100"/>
</nodes>