<?xml version="1.0" encoding="UTF-8"?>

<!-- generated on 2025-03-03 11:33:14 by Eclipse SUMO netconvert Version 1.22.0
<netconvertConfiguration xmlns:xsi="http://www.w3.org/2001/XMLSchema-instance" xsi:noNamespaceSchemaLocation="http://sumo.dlr.de/xsd/netconvertConfiguration.xsd">

    <input>
        <node-files value="test.nod.xml"/>
        <edge-files value="test.edg.xml"/>
    </input>

    <output>
        <output-file value="test.net.xml"/>
    </output>

</netconvertConfiguration>
-->

<net version="1.20" junctionCornerDetail="5" limitTurnSpeed="5.50" xmlns:xsi="http://www.w3.org/2001/XMLSchema-instance" xsi:noNamespaceSchemaLocation="http://sumo.dlr.de/xsd/net_file.xsd">

    <location netOffset="0.00,0.00" convBoundary="0.00,0.00,100.00,100.00" origBoundary="0.00,0.00,100.00,100.00" projParameter="!"/>

    <edge id=":A_0" function="internal">
        <lane id=":A_0_0" index="0" speed="6.08" length="7.74" shape="-1.60,3.20 -1.30,1.10 -0.40,-0.40 1.10,-1.30 3.20,-1.60"/>
    </edge>
    <edge id=":A_1" function="internal">
        <lane id=":A_1_0" index="0" speed="3.90" length="2.58" shape="3.20,1.60 2.50,1.70 2.00,2.00 1.70,2.50 1.60,3.20"/>
    </edge>
    <edge id=":B_0" function="internal">
        <lane id=":B_0_0" index="0" speed="3.90" length="2.58" shape="98.40,3.20 98.30,2.50 98.00,2.00 97.50,1.70 96.80,1.60"/>
    </edge>
    <edge id=":B_1" function="internal">
        <lane id=":B_1_0" index="0" speed="6.08" length="7.74" shape="96.80,-1.60 98.90,-1.30 100.40,-0.40 101.30,1.10 101.60,3.20"/>
    </edge>
    <edge id=":C_0" function="internal">
        <lane id=":C_0_0" index="0" speed="6.08" length="7.74" shape="101.60,96.80 101.30,98.90 100.40,100.40 98.90,101.30 96.80,101.60"/>
    </edge>
    <edge id=":C_1" function="internal">
        <lane id=":C_1_0" index="0" speed="3.90" length="2.58" shape="96.80,98.40 97.50,98.30 98.00,98.00 98.30,97.50 98.40,96.80"/>
    </edge>
    <edge id=":D_0" function="internal">
        <lane id=":D_0_0" index="0" speed="6.08" length="7.74" shape="3.20,101.60 1.10,101.30 -0.40,100.40 -1.30,98.90 -1.60,96.80"/>
    </edge>
    <edge id=":D_1" function="internal">
        <lane id=":D_1_0" index="0" speed="3.90" length="2.58" shape="1.60,96.80 1.70,97.50 2.00,98.00 2.50,98.30 3.20,98.40"/>
    </edge>

    <edge id="AB" from="A" to="B" priority="-1">
        <lane id="AB_0" index="0" speed="13.89" length="93.60" shape="3.20,-1.60 96.80,-1.60"/>
    </edge>
    <edge id="AD" from="A" to="D" priority="-1">
        <lane id="AD_0" index="0" speed="13.89" length="93.60" shape="1.60,3.20 1.60,96.80"/>
    </edge>
    <edge id="BA" from="B" to="A" priority="-1">
        <lane id="BA_0" index="0" speed="13.89" length="93.60" shape="96.80,1.60 3.20,1.60"/>
    </edge>
    <edge id="BC" from="B" to="C" priority="-1">
        <lane id="BC_0" index="0" speed="13.89" length="93.60" shape="101.60,3.20 101.60,96.80"/>
    </edge>
    <edge id="CB" from="C" to="B" priority="-1">
        <lane id="CB_0" index="0" speed="13.89" length="93.60" shape="98.40,96.80 98.40,3.20"/>
    </edge>
    <edge id="CD" from="C" to="D" priority="-1">
        <lane id="CD_0" index="0" speed="13.89" length="93.60" shape="96.80,101.60 3.20,101.60"/>
    </edge>
    <edge id="DA" from="D" to="A" priority="-1">
        <lane id="DA_0" index="0" speed="13.89" length="93.60" shape="-1.60,96.80 -1.60,3.20"/>
    </edge>
    <edge id="DC" from="D" to="C" priority="-1">
        <lane id="DC_0" index="0" speed="13.89" length="93.60" shape="3.20,98.40 96.80,98.40"/>
    </edge>

    <junction id="A" type="priority" x="0.00" y="0.00" incLanes="DA_0 BA_0" intLanes=":A_0_0 :A_1_0" shape="-3.20,3.20 3.20,3.20 3.20,-3.20 -0.36,-2.49 -1.60,-1.60 -2.49,-0.36 -3.02,1.24">
        <request index="0" response="00" foes="00" cont="0"/>
        <request index="1" response="00" foes="00" cont="0"/>
    </junction>
    <junction id="B" type="priority" x="100.00" y="0.00" incLanes="CB_0 AB_0" intLanes=":B_0_0 :B_1_0" shape="96.80,3.20 103.20,3.20 102.49,-0.36 101.60,-1.60 100.36,-2.49 98.76,-3.02 96.80,-3.20">
        <request index="0" response="00" foes="00" cont="0"/>
        <request index="1" response="00" foes="00" cont="0"/>
    </junction>
    <junction id="C" type="priority" x="100.00" y="100.00" incLanes="BC_0 DC_0" intLanes=":C_0_0 :C_1_0" shape="103.20,96.80 96.80,96.80 96.80,103.20 100.36,102.49 101.60,101.60 102.49,100.36 103.02,98.76">
        <request index="0" response="00" foes="00" cont="0"/>
        <request index="1" response="00" foes="00" cont="0"/>
    </junction>
    <junction id="D" type="priority" x="0.00" y="100.00" incLanes="CD_0 AD_0" intLanes=":D_0_0 :D_1_0" shape="3.20,103.20 3.20,96.80 -3.20,96.80 -2.49,100.36 -1.60,101.60 -0.36,102.49 1.24,103.02">
        <request index="0" response="00" foes="00" cont="0"/>
        <request index="1" response="00" foes="00" cont="0"/>
    </junction>

    <connection from="AB" to="BC" fromLane="0" toLane="0" via=":B_1_0" dir="l" state="M"/>
    <connection from="AD" to="DC" fromLane="0" toLane="0" via=":D_1_0" dir="r" state="M"/>
    <connection from="BA" to="AD" fromLane="0" toLane="0" via=":A_1_0" dir="r" state="M"/>
    <connection from="BC" to="CD" fromLane="0" toLane="0" via=":C_0_0" dir="l" state="M"/>
    <connection from="CB" to="BA" fromLane="0" toLane="0" via=":B_0_0" dir="r" state="M"/>
    <connection from="CD" to="DA" fromLane="0" toLane="0" via=":D_0_0" dir="l" state="M"/>
    <connection from="DA" to="AB" fromLane="0" toLane="0" via=":A_0_0" dir="l" state="M"/>
    <connection from="DC" to="CB" fromLane="0" toLane="0" via=":C_1_0" dir="r" state="M"/>

    <connection from=":A_0" to="AB" fromLane="0" toLane="0" dir="l" state="M"/>
    <connection from=":A_1" to="AD" fromLane="0" toLane="0" dir="r" state="M"/>
    <connection from=":B_0" to="BA" fromLane="0" toLane="0" dir="r" state="M"/>
    <connection from=":B_1" to="BC" fromLane="0" toLane="0" dir="l" state="M"/>
    <connection from=":C_0" to="CD" fromLane="0" toLane="0" dir="l" state="M"/>
    <connection from=":C_1" to="CB" fromLane="0" toLane="0" dir="r" state="M"/>
    <connection from=":D_0" to="DA" fromLane="0" toLane="0" dir="l" state="M"/>
    <connection from=":D_1" to="DC" fromLane="0" toLane="0" dir="r" state="M"/>

</net>
