<?xml version="1.0" encoding="UTF-8"?>

<!-- generated on 2025-03-03 14:48:43 by Eclipse SUMO netedit Version 1.22.0
<neteditConfiguration xmlns:xsi="http://www.w3.org/2001/XMLSchema-instance" xsi:noNamespaceSchemaLocation="http://sumo.dlr.de/xsd/neteditConfiguration.xsd">

    <processing>
        <offset.disable-normalization value="true"/>
    </processing>

    <junctions>
        <no-turnarounds value="true"/>
    </junctions>

    <netedit>
        <new-network value="false"/>
    </netedit>

</neteditConfiguration>
-->

<edges version="1.20" xmlns:xsi="http://www.w3.org/2001/XMLSchema-instance" xsi:noNamespaceSchemaLocation="http://sumo.dlr.de/xsd/edges_file.xsd">
    <edge id="-E0" from="J1" to="J0" priority="-1" numLanes="2" speed="13.89"/>
    <edge id="-E1" from="J2" to="J1" priority="-1" numLanes="2" speed="13.89"/>
    <edge id="-E2" from="J3" to="J1" priority="-1" numLanes="2" speed="13.89"/>
    <edge id="-E3" from="J4" to="J1" priority="-1" numLanes="2" speed="13.89"/>
    <edge id="-E4" from="J0" to="J4" priority="-1" numLanes="2" speed="13.89"/>
    <edge id="-E5" from="J0" to="J3" priority="-1" numLanes="2" speed="13.89"/>
    <edge id="-E6" from="J2" to="J3" priority="-1" numLanes="2" speed="13.89"/>
    <edge id="-E7" from="J4" to="J2" priority="-1" numLanes="2" speed="13.89"/>
    <edge id="E0" from="J0" to="J1" priority="-1" numLanes="2" speed="13.89"/>
    <edge id="E1" from="J1" to="J2" priority="-1" numLanes="2" speed="13.89"/>
    <edge id="E2" from="J1" to="J3" priority="-1" numLanes="2" speed="13.89"/>
    <edge id="E3" from="J1" to="J4" priority="-1" numLanes="2" speed="13.89"/>
    <edge id="E4" from="J4" to="J0" priority="-1" numLanes="2" speed="13.89"/>
    <edge id="E5" from="J3" to="J0" priority="-1" numLanes="2" speed="13.89"/>
    <edge id="E6" from="J3" to="J2" priority="-1" numLanes="2" speed="13.89"/>
    <edge id="E7" from="J2" to="J4" priority="-1" numLanes="2" speed="13.89"/>
</edges>
