<?xml version="1.0" encoding="UTF-8"?>

<!-- generated on 2025-03-06 20:26:26 by Eclipse SUMO netedit Version 1.22.0
<neteditConfiguration xmlns:xsi="http://www.w3.org/2001/XMLSchema-instance" xsi:noNamespaceSchemaLocation="http://sumo.dlr.de/xsd/neteditConfiguration.xsd">

    <input>
        <sumo-net-file value="C:\Users\USER\projects\test\sumo\test 2.0\test.net.xml"/>
    </input>

    <output>
        <output-file value="C:\Users\USER\projects\test\sumo\test 2.0\test.net.xml"/>
    </output>

    <processing>
        <geometry.min-radius.fix.railways value="false"/>
        <geometry.max-grade.fix value="false"/>
        <offset.disable-normalization value="true"/>
        <lefthand value="0"/>
    </processing>

    <junctions>
        <no-turnarounds value="true"/>
        <junctions.corner-detail value="5"/>
        <junctions.limit-turn-speed value="5.50"/>
        <rectangular-lane-cut value="0"/>
    </junctions>

    <pedestrian>
        <walkingareas value="0"/>
    </pedestrian>

</neteditConfiguration>
-->

<net version="1.20" junctionCornerDetail="5" limitTurnSpeed="5.50" xmlns:xsi="http://www.w3.org/2001/XMLSchema-instance" xsi:noNamespaceSchemaLocation="http://sumo.dlr.de/xsd/net_file.xsd">

    <location netOffset="607.30,621.60" convBoundary="0.00,0.00,1062.40,1025.10" origBoundary="-607.30,-621.60,455.10,403.50" projParameter="!"/>

    <edge id=":A_0" function="internal">
        <lane id=":A_0_0" index="0" speed="13.07" length="38.64" shape="547.92,1015.33 539.40,1021.49 530.88,1023.52 522.34,1021.43 513.80,1015.21"/>
        <lane id=":A_0_1" index="1" speed="12.22" length="33.60" shape="545.70,1013.03 538.29,1018.38 530.88,1020.15 523.46,1018.33 516.02,1012.92"/>
    </edge>
    <edge id=":A_2" function="internal">
        <lane id=":A_2_0" index="0" speed="8.18" length="6.21" shape="545.70,1013.03 540.32,1016.12"/>
    </edge>
    <edge id=":A_3" function="internal">
        <lane id=":A_3_0" index="0" speed="3.65" length="1.44" shape="545.70,1013.03 544.28,1013.28"/>
    </edge>
    <edge id=":A_12" function="internal">
        <lane id=":A_12_0" index="0" speed="8.18" length="17.39" shape="540.32,1016.12 540.11,1016.23 534.80,1015.81 530.83,1012.22 529.25,1005.94"/>
    </edge>
    <edge id=":A_13" function="internal">
        <lane id=":A_13_0" index="0" speed="3.65" length="3.23" shape="544.28,1013.28 543.44,1012.99 543.17,1012.13 543.47,1010.72"/>
    </edge>
    <edge id=":A_4" function="internal">
        <lane id=":A_4_0" index="0" speed="5.50" length="9.76" shape="535.65,1005.92 536.01,1009.04 537.06,1010.49 538.81,1010.29 541.25,1008.42"/>
        <lane id=":A_4_1" index="1" speed="7.43" length="19.14" shape="532.45,1005.93 533.16,1012.01 535.23,1014.83 538.67,1014.41 543.47,1010.72"/>
    </edge>
    <edge id=":A_6" function="internal">
        <lane id=":A_6_0" index="0" speed="8.16" length="23.54" shape="532.45,1005.93 530.90,1012.18 526.92,1015.73 521.60,1016.13 516.02,1012.92"/>
    </edge>
    <edge id=":A_7" function="internal">
        <lane id=":A_7_0" index="0" speed="3.65" length="2.34" shape="532.45,1005.93 531.65,1007.13 530.86,1007.54"/>
    </edge>
    <edge id=":A_14" function="internal">
        <lane id=":A_14_0" index="0" speed="3.65" length="2.34" shape="530.86,1007.54 530.05,1007.14 529.25,1005.94"/>
    </edge>
    <edge id=":A_8" function="internal">
        <lane id=":A_8_0" index="0" speed="5.48" length="9.70" shape="520.48,1008.32 522.92,1010.20 524.67,1010.44 525.71,1009.02 526.05,1005.95"/>
    </edge>
    <edge id=":A_9" function="internal">
        <lane id=":A_9_0" index="0" speed="10.29" length="23.52" shape="520.48,1008.32 525.68,1012.11 530.88,1013.40 536.07,1012.17 541.25,1008.42"/>
        <lane id=":A_9_1" index="1" speed="11.29" length="28.56" shape="518.25,1010.62 524.57,1015.22 530.88,1016.77 537.18,1015.27 543.47,1010.72"/>
    </edge>
    <edge id=":A_11" function="internal">
        <lane id=":A_11_0" index="0" speed="3.65" length="1.30" shape="518.25,1010.62 518.52,1011.89"/>
    </edge>
    <edge id=":A_15" function="internal">
        <lane id=":A_15_0" index="0" speed="3.65" length="3.37" shape="518.52,1011.89 518.55,1012.03 518.28,1012.88 517.44,1013.18 516.02,1012.92"/>
    </edge>
    <edge id=":B_0" function="internal">
        <lane id=":B_0_0" index="0" speed="12.91" length="39.60" shape="10.90,528.04 4.22,519.42 2.00,510.80 4.23,502.19 10.91,493.58"/>
        <lane id=":B_0_1" index="1" speed="12.04" length="34.31" shape="13.13,525.74 7.34,518.27 5.41,510.81 7.34,503.34 13.13,495.88"/>
    </edge>
    <edge id=":B_2" function="internal">
        <lane id=":B_2_0" index="0" speed="8.12" length="6.05" shape="13.13,525.74 9.98,520.57"/>
    </edge>
    <edge id=":B_3" function="internal">
        <lane id=":B_3_0" index="0" speed="3.65" length="1.44" shape="13.13,525.74 12.82,524.33"/>
    </edge>
    <edge id=":B_11" function="internal">
        <lane id=":B_11_0" index="0" speed="8.12" length="17.55" shape="9.98,520.57 9.78,520.25 10.09,514.89 13.60,510.83 19.83,509.22"/>
    </edge>
    <edge id=":B_12" function="internal">
        <lane id=":B_12_0" index="0" speed="3.65" length="3.23" shape="12.82,524.33 13.09,523.48 13.93,523.19 15.35,523.45"/>
    </edge>
    <edge id=":B_4" function="internal">
        <lane id=":B_4_0" index="0" speed="5.47" length="9.79" shape="19.82,515.62 16.70,515.96 15.28,517.00 15.58,518.73 17.58,521.15"/>
    </edge>
    <edge id=":B_5" function="internal">
        <lane id=":B_5_0" index="0" speed="8.12" length="23.61" shape="19.82,512.42 13.60,510.80 10.09,506.73 9.78,501.37 13.13,495.88"/>
    </edge>
    <edge id=":B_6" function="internal">
        <lane id=":B_6_0" index="0" speed="3.65" length="2.34" shape="19.82,512.42 18.63,511.62 18.23,510.82"/>
    </edge>
    <edge id=":B_13" function="internal">
        <lane id=":B_13_0" index="0" speed="3.65" length="2.34" shape="18.23,510.82 18.63,510.02 19.83,509.22"/>
    </edge>
    <edge id=":B_7" function="internal">
        <lane id=":B_7_0" index="0" speed="5.47" length="9.80" shape="17.58,500.48 15.58,502.90 15.28,504.63 16.70,505.67 19.83,506.02"/>
    </edge>
    <edge id=":B_8" function="internal">
        <lane id=":B_8_0" index="0" speed="10.09" length="23.74" shape="17.58,500.48 13.58,505.65 12.24,510.81 13.58,515.98 17.58,521.15"/>
        <lane id=":B_8_1" index="1" speed="11.11" length="29.03" shape="15.36,498.18 10.46,504.49 8.83,510.81 10.46,517.13 15.35,523.45"/>
    </edge>
    <edge id=":B_10" function="internal">
        <lane id=":B_10_0" index="0" speed="3.65" length="1.30" shape="15.36,498.18 14.07,498.42"/>
    </edge>
    <edge id=":B_14" function="internal">
        <lane id=":B_14_0" index="0" speed="3.65" length="3.37" shape="14.07,498.42 13.94,498.44 13.09,498.15 12.83,497.29 13.13,495.88"/>
    </edge>
    <edge id=":C_0" function="internal">
        <lane id=":C_0_0" index="0" speed="6.54" length="9.10" shape="524.83,521.73 524.47,519.26 523.41,517.50 521.64,516.44 519.18,516.09"/>
    </edge>
    <edge id=":C_1" function="internal">
        <lane id=":C_1_0" index="0" speed="13.89" length="20.84" shape="524.83,521.73 524.78,500.89"/>
        <lane id=":C_1_1" index="1" speed="13.89" length="20.84" shape="528.03,521.72 527.98,500.88"/>
    </edge>
    <edge id=":C_3" function="internal">
        <lane id=":C_3_0" index="0" speed="9.25" length="5.02" shape="528.03,521.72 528.72,516.75"/>
    </edge>
    <edge id=":C_4" function="internal">
        <lane id=":C_4_0" index="0" speed="3.65" length="1.44" shape="528.03,521.72 528.82,520.52"/>
    </edge>
    <edge id=":C_20" function="internal">
        <lane id=":C_20_0" index="0" speed="9.25" length="14.36" shape="528.72,516.75 528.76,516.46 531.01,512.71 534.76,510.45 540.02,509.70"/>
    </edge>
    <edge id=":C_21" function="internal">
        <lane id=":C_21_0" index="0" speed="3.65" length="3.23" shape="528.82,520.52 529.62,520.12 530.42,520.52 531.23,521.71"/>
    </edge>
    <edge id=":C_5" function="internal">
        <lane id=":C_5_0" index="0" speed="6.50" length="9.03" shape="540.02,516.10 537.57,516.45 535.82,517.50 534.77,519.25 534.43,521.71"/>
    </edge>
    <edge id=":C_6" function="internal">
        <lane id=":C_6_0" index="0" speed="13.89" length="20.84" shape="540.02,516.10 519.18,516.09"/>
        <lane id=":C_6_1" index="1" speed="13.89" length="20.84" shape="540.02,512.90 519.18,512.89"/>
    </edge>
    <edge id=":C_8" function="internal">
        <lane id=":C_8_0" index="0" speed="9.28" length="5.02" shape="540.02,512.90 535.04,512.19"/>
    </edge>
    <edge id=":C_9" function="internal">
        <lane id=":C_9_0" index="0" speed="3.65" length="1.44" shape="540.02,512.90 538.82,512.10"/>
    </edge>
    <edge id=":C_22" function="internal">
        <lane id=":C_22_0" index="0" speed="9.28" length="14.37" shape="535.04,512.19 534.76,512.15 531.00,509.90 528.74,506.14 527.98,500.88"/>
    </edge>
    <edge id=":C_23" function="internal">
        <lane id=":C_23_0" index="0" speed="3.65" length="3.23" shape="538.82,512.10 538.42,511.30 538.82,510.50 540.02,509.70"/>
    </edge>
    <edge id=":C_10" function="internal">
        <lane id=":C_10_0" index="0" speed="6.53" length="9.09" shape="534.38,500.87 534.73,503.33 535.79,505.09 537.56,506.15 540.02,506.50"/>
    </edge>
    <edge id=":C_11" function="internal">
        <lane id=":C_11_0" index="0" speed="13.89" length="20.84" shape="534.38,500.87 534.43,521.71"/>
        <lane id=":C_11_1" index="1" speed="13.89" length="20.84" shape="531.18,500.88 531.23,521.71"/>
    </edge>
    <edge id=":C_13" function="internal">
        <lane id=":C_13_0" index="0" speed="9.25" length="5.01" shape="531.18,500.88 530.48,505.83"/>
    </edge>
    <edge id=":C_14" function="internal">
        <lane id=":C_14_0" index="0" speed="3.65" length="1.44" shape="531.18,500.88 530.38,502.08"/>
    </edge>
    <edge id=":C_24" function="internal">
        <lane id=":C_24_0" index="0" speed="9.25" length="14.37" shape="530.48,505.83 530.44,506.14 528.19,509.89 524.44,512.14 519.18,512.89"/>
    </edge>
    <edge id=":C_25" function="internal">
        <lane id=":C_25_0" index="0" speed="3.65" length="3.23" shape="530.38,502.08 529.58,502.48 528.78,502.08 527.98,500.88"/>
    </edge>
    <edge id=":C_15" function="internal">
        <lane id=":C_15_0" index="0" speed="6.50" length="9.03" shape="519.18,506.49 521.64,506.14 523.39,505.09 524.43,503.34 524.78,500.89"/>
    </edge>
    <edge id=":C_16" function="internal">
        <lane id=":C_16_0" index="0" speed="13.89" length="20.84" shape="519.18,506.49 540.02,506.50"/>
        <lane id=":C_16_1" index="1" speed="13.89" length="20.84" shape="519.18,509.69 540.02,509.70"/>
    </edge>
    <edge id=":C_18" function="internal">
        <lane id=":C_18_0" index="0" speed="9.28" length="5.01" shape="519.18,509.69 524.14,510.40"/>
    </edge>
    <edge id=":C_19" function="internal">
        <lane id=":C_19_0" index="0" speed="3.65" length="1.44" shape="519.18,509.69 520.38,510.49"/>
    </edge>
    <edge id=":C_26" function="internal">
        <lane id=":C_26_0" index="0" speed="9.28" length="14.39" shape="524.14,510.40 524.44,510.45 528.20,512.70 530.46,516.46 531.23,521.71"/>
    </edge>
    <edge id=":C_27" function="internal">
        <lane id=":C_27_0" index="0" speed="3.65" length="3.23" shape="520.38,510.49 520.78,511.29 520.38,512.09 519.18,512.89"/>
    </edge>
    <edge id=":D_0" function="internal">
        <lane id=":D_0_0" index="0" speed="12.90" length="39.68" shape="1051.32,494.24 1058.08,502.86 1060.36,511.48 1058.16,520.11 1051.48,528.73"/>
        <lane id=":D_0_1" index="1" speed="12.03" length="34.37" shape="1049.11,496.55 1054.97,504.02 1056.94,511.49 1055.04,518.96 1049.26,526.43"/>
    </edge>
    <edge id=":D_2" function="internal">
        <lane id=":D_2_0" index="0" speed="8.11" length="5.96" shape="1049.11,496.55 1052.23,501.62"/>
    </edge>
    <edge id=":D_3" function="internal">
        <lane id=":D_3_0" index="0" speed="3.65" length="1.44" shape="1049.11,496.55 1049.42,497.96"/>
    </edge>
    <edge id=":D_11" function="internal">
        <lane id=":D_11_0" index="0" speed="8.11" length="17.65" shape="1052.23,501.62 1052.48,502.03 1052.18,507.39 1048.68,511.47 1042.46,513.09"/>
    </edge>
    <edge id=":D_12" function="internal">
        <lane id=":D_12_0" index="0" speed="3.65" length="3.23" shape="1049.42,497.96 1049.16,498.81 1048.31,499.11 1046.89,498.86"/>
    </edge>
    <edge id=":D_4" function="internal">
        <lane id=":D_4_0" index="0" speed="5.47" length="9.81" shape="1042.46,506.69 1045.59,506.35 1047.01,505.31 1046.70,503.59 1044.68,501.17"/>
    </edge>
    <edge id=":D_5" function="internal">
        <lane id=":D_5_0" index="0" speed="8.13" length="23.66" shape="1042.46,509.89 1048.72,511.51 1052.26,515.57 1052.60,520.93 1049.26,526.43"/>
    </edge>
    <edge id=":D_6" function="internal">
        <lane id=":D_6_0" index="0" speed="3.65" length="2.34" shape="1042.46,509.89 1043.66,510.69 1044.06,511.49"/>
    </edge>
    <edge id=":D_13" function="internal">
        <lane id=":D_13_0" index="0" speed="3.65" length="2.34" shape="1044.06,511.49 1043.66,512.29 1042.46,513.09"/>
    </edge>
    <edge id=":D_7" function="internal">
        <lane id=":D_7_0" index="0" speed="5.49" length="9.86" shape="1044.81,521.82 1046.81,519.41 1047.08,517.68 1045.63,516.64 1042.46,516.29"/>
    </edge>
    <edge id=":D_8" function="internal">
        <lane id=":D_8_0" index="0" speed="10.07" length="23.76" shape="1044.81,521.82 1048.80,516.67 1050.11,511.51 1048.74,506.34 1044.68,501.17"/>
        <lane id=":D_8_1" index="1" speed="11.09" length="29.07" shape="1047.03,524.13 1051.92,517.81 1053.53,511.50 1051.85,505.18 1046.89,498.86"/>
    </edge>
    <edge id=":D_10" function="internal">
        <lane id=":D_10_0" index="0" speed="3.65" length="1.30" shape="1047.03,524.13 1048.31,523.89"/>
    </edge>
    <edge id=":D_14" function="internal">
        <lane id=":D_14_0" index="0" speed="3.65" length="3.37" shape="1048.31,523.89 1048.45,523.87 1049.29,524.16 1049.56,525.02 1049.26,526.43"/>
    </edge>
    <edge id=":E_0" function="internal">
        <lane id=":E_0_0" index="0" speed="5.48" length="9.68" shape="523.74,19.05 523.38,15.99 522.33,14.58 520.59,14.81 518.14,16.68"/>
    </edge>
    <edge id=":E_1" function="internal">
        <lane id=":E_1_0" index="0" speed="8.17" length="23.53" shape="526.94,19.04 528.49,12.80 532.45,9.24 537.77,8.82 543.36,12.02"/>
    </edge>
    <edge id=":E_2" function="internal">
        <lane id=":E_2_0" index="0" speed="3.65" length="2.34" shape="526.94,19.04 527.74,17.84 528.54,17.44"/>
    </edge>
    <edge id=":E_11" function="internal">
        <lane id=":E_11_0" index="0" speed="3.65" length="2.34" shape="528.54,17.44 529.34,17.84 530.14,19.04"/>
    </edge>
    <edge id=":E_3" function="internal">
        <lane id=":E_3_0" index="0" speed="5.48" length="9.68" shape="538.93,16.64 536.48,14.77 534.73,14.55 533.68,15.97 533.34,19.03"/>
    </edge>
    <edge id=":E_4" function="internal">
        <lane id=":E_4_0" index="0" speed="10.30" length="23.50" shape="538.93,16.64 533.72,12.90 528.53,11.66 523.33,12.92 518.14,16.68"/>
        <lane id=":E_4_1" index="1" speed="11.31" length="28.52" shape="541.14,14.33 534.83,9.79 528.52,8.29 522.22,9.82 515.92,14.38"/>
    </edge>
    <edge id=":E_6" function="internal">
        <lane id=":E_6_0" index="0" speed="3.65" length="1.30" shape="541.14,14.33 540.86,13.05"/>
    </edge>
    <edge id=":E_12" function="internal">
        <lane id=":E_12_0" index="0" speed="3.65" length="3.37" shape="540.86,13.05 540.83,12.92 541.09,12.06 541.94,11.76 543.36,12.02"/>
    </edge>
    <edge id=":E_7" function="internal">
        <lane id=":E_7_0" index="0" speed="13.09" length="38.56" shape="511.47,9.78 519.98,3.61 528.50,1.54 537.03,3.57 545.57,9.71"/>
        <lane id=":E_7_1" index="1" speed="12.23" length="33.54" shape="513.70,12.08 521.10,6.71 528.51,4.91 535.93,6.68 543.36,12.02"/>
    </edge>
    <edge id=":E_9" function="internal">
        <lane id=":E_9_0" index="0" speed="8.17" length="6.21" shape="513.70,12.08 519.08,8.98"/>
    </edge>
    <edge id=":E_10" function="internal">
        <lane id=":E_10_0" index="0" speed="3.65" length="1.44" shape="513.70,12.08 515.12,11.82"/>
    </edge>
    <edge id=":E_13" function="internal">
        <lane id=":E_13_0" index="0" speed="8.17" length="17.32" shape="519.08,8.98 519.27,8.87 524.59,9.26 528.57,12.80 530.14,19.04"/>
    </edge>
    <edge id=":E_14" function="internal">
        <lane id=":E_14_0" index="0" speed="3.65" length="3.23" shape="515.12,11.82 515.96,12.12 516.23,12.97 515.92,14.38"/>
    </edge>

    <edge id="AB" from="A" to="B" priority="-1">
        <lane id="AB_0" index="0" speed="13.89" length="700.17" shape="513.80,1015.21 10.90,528.04"/>
        <lane id="AB_1" index="1" speed="13.89" length="700.17" shape="516.02,1012.92 13.13,525.74"/>
    </edge>
    <edge id="AC" from="C" to="A" priority="-1">
        <lane id="AC_0" index="0" speed="13.89" length="484.22" shape="534.43,521.71 535.65,1005.92"/>
        <lane id="AC_1" index="1" speed="13.89" length="484.22" shape="531.23,521.71 532.45,1005.93"/>
    </edge>
    <edge id="AD" from="A" to="D" priority="-1">
        <lane id="AD_0" index="0" speed="13.89" length="700.25" shape="541.25,1008.42 1044.81,521.82"/>
        <lane id="AD_1" index="1" speed="13.89" length="700.25" shape="543.47,1010.72 1047.03,524.13"/>
    </edge>
    <edge id="BA" from="B" to="A" priority="-1">
        <lane id="BA_0" index="0" speed="13.89" length="700.17" shape="17.58,521.15 520.48,1008.32"/>
        <lane id="BA_1" index="1" speed="13.89" length="700.17" shape="15.35,523.45 518.25,1010.62"/>
    </edge>
    <edge id="BC" from="B" to="C" priority="-1">
        <lane id="BC_0" index="0" speed="13.89" length="499.35" shape="19.83,506.02 519.18,506.49"/>
        <lane id="BC_1" index="1" speed="13.89" length="499.35" shape="19.83,509.22 519.18,509.69"/>
    </edge>
    <edge id="BE" from="B" to="E" priority="-1">
        <lane id="BE_0" index="0" speed="13.89" length="696.15" shape="10.91,493.58 511.47,9.78"/>
        <lane id="BE_1" index="1" speed="13.89" length="696.15" shape="13.13,495.88 513.70,12.08"/>
    </edge>
    <edge id="CA" from="A" to="C" priority="-1">
        <lane id="CA_0" index="0" speed="13.89" length="484.22" shape="526.05,1005.95 524.83,521.73"/>
        <lane id="CA_1" index="1" speed="13.89" length="484.22" shape="529.25,1005.94 528.03,521.72"/>
    </edge>
    <edge id="CB" from="C" to="B" priority="-1">
        <lane id="CB_0" index="0" speed="13.89" length="499.35" shape="519.18,516.09 19.82,515.62"/>
        <lane id="CB_1" index="1" speed="13.89" length="499.35" shape="519.18,512.89 19.82,512.42"/>
    </edge>
    <edge id="CD" from="C" to="D" priority="-1">
        <lane id="CD_0" index="0" speed="13.89" length="502.44" shape="540.02,506.50 1042.46,506.69"/>
        <lane id="CD_1" index="1" speed="13.89" length="502.44" shape="540.02,509.70 1042.46,509.89"/>
    </edge>
    <edge id="CE" from="C" to="E" priority="-1">
        <lane id="CE_0" index="0" speed="13.89" length="481.84" shape="524.78,500.89 523.74,19.05"/>
        <lane id="CE_1" index="1" speed="13.89" length="481.84" shape="527.98,500.88 526.94,19.04"/>
    </edge>
    <edge id="DA" from="D" to="A" priority="-1">
        <lane id="DA_0" index="0" speed="13.89" length="700.25" shape="1051.48,528.73 547.92,1015.33"/>
        <lane id="DA_1" index="1" speed="13.89" length="700.25" shape="1049.26,526.43 545.70,1013.03"/>
    </edge>
    <edge id="DC" from="D" to="C" priority="-1">
        <lane id="DC_0" index="0" speed="13.89" length="502.44" shape="1042.46,516.29 540.02,516.10"/>
        <lane id="DC_1" index="1" speed="13.89" length="502.44" shape="1042.46,513.09 540.02,512.90"/>
    </edge>
    <edge id="DE" from="D" to="E" priority="-1">
        <lane id="DE_0" index="0" speed="13.89" length="700.40" shape="1044.68,501.17 538.93,16.64"/>
        <lane id="DE_1" index="1" speed="13.89" length="700.40" shape="1046.89,498.86 541.14,14.33"/>
    </edge>
    <edge id="EB" from="E" to="B" priority="-1">
        <lane id="EB_0" index="0" speed="13.89" length="696.15" shape="518.14,16.68 17.58,500.48"/>
        <lane id="EB_1" index="1" speed="13.89" length="696.15" shape="515.92,14.38 15.36,498.18"/>
    </edge>
    <edge id="EC" from="E" to="C" priority="-1">
        <lane id="EC_0" index="0" speed="13.89" length="481.84" shape="533.34,19.03 534.38,500.87"/>
        <lane id="EC_1" index="1" speed="13.89" length="481.84" shape="530.14,19.04 531.18,500.88"/>
    </edge>
    <edge id="ED" from="E" to="D" priority="-1">
        <lane id="ED_0" index="0" speed="13.89" length="700.40" shape="545.57,9.71 1051.32,494.24"/>
        <lane id="ED_1" index="1" speed="13.89" length="700.40" shape="543.36,12.02 1049.11,496.55"/>
    </edge>

    <tlLogic id="J0" type="static" programID="0" offset="0">
        <phase duration="42" state="GGggrrrrGGGg"/>
        <phase duration="3"  state="yyyyrrrrGyyy"/>
        <phase duration="42" state="rrrrGGGgGrrr"/>
        <phase duration="3"  state="rrrryyyyGrrr"/>
    </tlLogic>
    <tlLogic id="J1" type="static" programID="0" offset="0">
        <phase duration="42" state="GGGggrrrrrGGGggrrrrr"/>
        <phase duration="3"  state="yyyyyrrrrryyyyyrrrrr"/>
        <phase duration="42" state="rrrrrGGGggrrrrrGGGgg"/>
        <phase duration="3"  state="rrrrryyyyyrrrrryyyyy"/>
    </tlLogic>
    <tlLogic id="J2" type="static" programID="0" offset="0">
        <phase duration="42" state="rrrGGGgGGgg"/>
        <phase duration="3"  state="rrrGyyyyyyy"/>
        <phase duration="42" state="GGgGrrrrrrr"/>
        <phase duration="3"  state="yyyGrrrrrrr"/>
    </tlLogic>
    <tlLogic id="J3" type="static" programID="0" offset="0">
        <phase duration="37" state="GGggrrrGGGg"/>
        <phase duration="3"  state="GGggrrryyyy"/>
        <phase duration="6"  state="GGGGrrrrrrr"/>
        <phase duration="3"  state="yyyyrrrrrrr"/>
        <phase duration="1"  state="rrrrrrrrrrr"/>
        <phase duration="37" state="rrrrGGgGrrr"/>
        <phase duration="3"  state="rrrryyyGrrr"/>
    </tlLogic>
    <tlLogic id="J4" type="static" programID="0" offset="0">
        <phase duration="37" state="GGggrrrGGGg"/>
        <phase duration="3"  state="GGggrrryyyy"/>
        <phase duration="6"  state="GGGGrrrrrrr"/>
        <phase duration="3"  state="yyyyrrrrrrr"/>
        <phase duration="1"  state="rrrrrrrrrrr"/>
        <phase duration="37" state="rrrrGGgGrrr"/>
        <phase duration="3"  state="rrrryyyGrrr"/>
    </tlLogic>

    <junction id="A" type="traffic_light" x="530.90" y="1025.10" incLanes="DA_0 DA_1 AC_0 AC_1 BA_0 BA_1" intLanes=":A_0_0 :A_0_1 :A_12_0 :A_13_0 :A_4_0 :A_4_1 :A_6_0 :A_14_0 :A_8_0 :A_9_0 :A_9_1 :A_15_0" shape="549.03,1016.48 540.14,1007.27 538.54,1008.36 537.98,1008.32 537.58,1007.91 537.33,1007.11 537.25,1005.92 524.45,1005.95 524.14,1007.87 523.74,1008.26 523.18,1008.27 522.47,1007.91 521.59,1007.17 512.68,1016.36 518.75,1021.27 524.82,1024.22 530.88,1025.21 536.93,1024.25 542.98,1021.34">
        <request index="0"  response="000000000000" foes="100001000000" cont="0"/>
        <request index="1"  response="000000000000" foes="100001000000" cont="0"/>
        <request index="2"  response="011000000000" foes="011011000000" cont="1"/>
        <request index="3"  response="011000110000" foes="011000110000" cont="1"/>
        <request index="4"  response="011000000000" foes="011000001000" cont="0"/>
        <request index="5"  response="011000000000" foes="011000001000" cont="0"/>
        <request index="6"  response="011000000111" foes="111000000111" cont="0"/>
        <request index="7"  response="000000000100" foes="000000000100" cont="1"/>
        <request index="8"  response="000000000000" foes="000000000000" cont="0"/>
        <request index="9"  response="000000000000" foes="000001111100" cont="0"/>
        <request index="10" response="000000000000" foes="000001111100" cont="0"/>
        <request index="11" response="000001000011" foes="000001000011" cont="1"/>
    </junction>
    <junction id="B" type="traffic_light" x="0.00" y="510.80" incLanes="AB_0 AB_1 CB_0 CB_1 EB_0 EB_1" intLanes=":B_0_0 :B_0_1 :B_11_0 :B_12_0 :B_4_0 :B_5_0 :B_13_0 :B_7_0 :B_8_0 :B_8_1 :B_14_0" shape="9.79,529.19 18.69,520.00 17.54,518.45 17.54,517.91 17.92,517.53 18.68,517.29 19.82,517.22 19.83,504.42 17.92,504.11 17.54,503.72 17.54,503.18 17.92,502.48 18.69,501.64 9.80,492.43 4.52,498.55 1.35,504.68 0.29,510.80 1.35,516.93 4.51,523.06">
        <request index="0"  response="00000000000" foes="10000100000" cont="0"/>
        <request index="1"  response="00000000000" foes="10000100000" cont="0"/>
        <request index="2"  response="01100000000" foes="01101100000" cont="1"/>
        <request index="3"  response="01100000000" foes="01100000000" cont="1"/>
        <request index="4"  response="01100000000" foes="01100000000" cont="0"/>
        <request index="5"  response="01100000111" foes="11100000111" cont="0"/>
        <request index="6"  response="00000000100" foes="00000000100" cont="1"/>
        <request index="7"  response="00000000000" foes="00000000000" cont="0"/>
        <request index="8"  response="00000000000" foes="00000111100" cont="0"/>
        <request index="9"  response="00000000000" foes="00000111100" cont="0"/>
        <request index="10" response="00000100011" foes="00000100011" cont="1"/>
    </junction>
    <junction id="C" type="traffic_light" x="529.60" y="511.30" incLanes="CA_0 CA_1 DC_0 DC_1 EC_0 EC_1 BC_0 BC_1" intLanes=":C_0_0 :C_1_0 :C_1_1 :C_20_0 :C_21_0 :C_5_0 :C_6_0 :C_6_1 :C_22_0 :C_23_0 :C_10_0 :C_11_0 :C_11_1 :C_24_0 :C_25_0 :C_15_0 :C_16_0 :C_16_1 :C_26_0 :C_27_0" shape="523.23,521.73 536.03,521.70 536.47,519.48 537.02,518.70 537.80,518.15 538.79,517.81 540.02,517.70 540.02,504.90 537.78,504.45 536.99,503.89 536.43,503.11 536.09,502.10 535.98,500.87 523.18,500.89 522.74,503.12 522.18,503.89 521.41,504.45 520.41,504.78 519.19,504.89 519.17,517.69 521.42,518.14 522.21,518.70 522.77,519.49 523.11,520.50">
        <request index="0"  response="00000000000000000000" foes="00000000000011000000" cont="0"/>
        <request index="1"  response="01000000000100000000" foes="01111110000111000000" cont="0"/>
        <request index="2"  response="01000000000100000000" foes="01111110000111000000" cont="0"/>
        <request index="3"  response="01000001100100000000" foes="01110001101111000000" cont="1"/>
        <request index="4"  response="01000001100000000000" foes="01000001100000000000" cont="1"/>
        <request index="5"  response="00000001100000000000" foes="00000001100000000000" cont="0"/>
        <request index="6"  response="00000011100000001111" foes="11000011100000001111" cont="0"/>
        <request index="7"  response="00000011100000001111" foes="11000011100000001111" cont="0"/>
        <request index="8"  response="00110011100000001110" foes="00110111100000001110" cont="1"/>
        <request index="9"  response="00110000000000001000" foes="00110000000000001000" cont="1"/>
        <request index="10" response="00000000000000000000" foes="00110000000000000000" cont="0"/>
        <request index="11" response="01000000000100000000" foes="01110000000111111000" cont="0"/>
        <request index="12" response="01000000000100000000" foes="01110000000111111000" cont="0"/>
        <request index="13" response="01000000000100000110" foes="11110000000111000110" cont="1"/>
        <request index="14" response="00000000000100000110" foes="00000000000100000110" cont="1"/>
        <request index="15" response="00000000000000000110" foes="00000000000000000110" cont="0"/>
        <request index="16" response="00000011110000001110" foes="00000011111100001110" cont="0"/>
        <request index="17" response="00000011110000001110" foes="00000011111100001110" cont="0"/>
        <request index="18" response="00000011100011001110" foes="00000011100011011110" cont="1"/>
        <request index="19" response="00000010000011000000" foes="00000010000011000000" cont="1"/>
    </junction>
    <junction id="D" type="traffic_light" x="1062.40" y="511.50" incLanes="ED_0 ED_1 CD_0 CD_1 AD_0 AD_1" intLanes=":D_0_0 :D_0_1 :D_11_0 :D_12_0 :D_4_0 :D_5_0 :D_13_0 :D_7_0 :D_8_0 :D_8_1 :D_14_0" shape="1052.43,493.08 1043.57,502.33 1044.73,503.86 1044.74,504.40 1044.36,504.79 1043.60,505.02 1042.46,505.09 1042.46,517.89 1044.42,518.20 1044.83,518.59 1044.84,519.13 1044.46,519.82 1043.70,520.67 1052.59,529.88 1057.88,523.75 1061.04,517.61 1062.07,511.48 1060.98,505.35 1057.77,499.22">
        <request index="0"  response="00000000000" foes="10000100000" cont="0"/>
        <request index="1"  response="00000000000" foes="10000100000" cont="0"/>
        <request index="2"  response="01100000000" foes="01101100000" cont="1"/>
        <request index="3"  response="01100000000" foes="01100000000" cont="1"/>
        <request index="4"  response="01100000000" foes="01100000000" cont="0"/>
        <request index="5"  response="01100000111" foes="11100000111" cont="0"/>
        <request index="6"  response="00000000100" foes="00000000100" cont="1"/>
        <request index="7"  response="00000000000" foes="00000000000" cont="0"/>
        <request index="8"  response="00000000000" foes="00000111100" cont="0"/>
        <request index="9"  response="00000000000" foes="00000111100" cont="0"/>
        <request index="10" response="00000100011" foes="00000100011" cont="1"/>
    </junction>